15

N     -6.8075332    -2.3391796     1.0767963    
C     -1.4518250     2.1474052    -0.0222886    
C     -7.8675434     6.5879069     2.0705007    
C      5.3302952    -1.4114881    -0.8636376    
C      3.6408720    -12.0777378     2.6858614    
N     -0.2133990    -4.3667656    -0.7757059    
N      12.6217417     4.0450068    -0.5591379    
C     -7.5174271     4.2010518    -2.5775450    
N      2.2242220     0.8109590    -0.0719786    
N     -0.9857952     2.5637731    -0.9862749    
H     -6.1494439    -3.0582725     0.8645249    
H      5.7216858    -2.0756611    -0.0831938    
H     -2.0779529     1.8410919     0.7820844    
H      2.7368899     1.0965070     0.7355392    
H      0.4364425    -4.8725328    -0.2134368    
