15

N     -6.7737970    -1.7521621     0.9470427    
C     -1.5988922     3.0490018    -0.1189712    
C     -7.8547763     7.1698599     1.9383322    
C      5.6604242    -1.1960287    -1.0804708    
C      3.7176880    -11.5129092     2.5995059    
N     -0.1681821    -3.7781936    -0.9120953    
N      12.7732971     4.7128479    -0.6694326    
C     -7.5089692     4.7871619    -2.7181821    
N      2.2187025     1.5108563    -0.1005343    
N     -1.2818068     3.1823623    -1.2396121    
H     -6.1091055    -2.4705895     0.7344303    
H      5.7953124    -1.5511688    -0.1004417    
H     -1.9796963     2.2262001     0.6308743    
H      2.8472767     1.7242710     0.6308739    
H      0.4883460    -4.2878108    -0.3359573    
