15

N     -11.7552624     1.2654808     1.3386195    
C     -9.9406455    -3.2028727    -0.0969105    
C      1.5394529    -13.9057922     1.2176823    
C      18.2243327    -11.9271915     2.9130198    
C     -4.8319480     8.0366169     0.2813974    
N      0.3704575    -3.6377080    -0.0923176    
N     -4.6488963     9.1201268     0.6161396    
C      11.8384664     9.5982521     0.7753648    
N     -10.3490737    -2.5254087    -0.9174490    
N     -1.6793635     5.3951309    -6.0266364    
H     -0.4156815    -3.7739560    -0.6909894    
H      7.1636285     3.0690902    -0.0489169    
H     -1.4949358     7.0027720     0.5010891    
H      2.1268190     7.1799184     0.6884668    
H      1.5833948    -9.2160811    -0.5940140    
