388

H         -1.54700        9.37743       -1.21644
O         -1.44000        8.89599       -0.40059
P          0.00000        8.91000        0.00000
O          0.22000       10.17258        0.73369
O          0.79000        8.73148       -1.23936
O          0.25000        7.66872        0.97140
C         -0.69000        7.42309        2.04641
C          0.04000        6.86059        3.24661
O          0.25000        5.42847        3.03646
C          1.44000        7.41196        3.50753
O          1.83000        7.27073        4.86816
C          2.32000        6.52730        2.63741
C          1.61000        5.18420        2.73198
N          1.66000        4.38762        1.47840
C          1.58000        4.81605        0.16863
N          1.66000        3.85454       -0.71336
C          1.80000        2.69940        0.05670
C          1.93000        1.34815       -0.33850
O          1.95000        0.86955       -1.47125
N          2.05000        0.49630        0.77465
C          2.05000        0.90840        2.09122
N          2.18000       -0.05178        3.00955
N          1.92000        2.17875        2.46519
C          1.80000        3.01988        1.40330
H         -1.17900        8.36803        2.32493
H         -1.44900        6.70197        1.71129
H         -0.58200        7.03551        4.13168
H          2.07300        4.59498        3.54415
H          2.35200        6.88898        1.59848
H          3.34400        6.46749        3.03687
H          1.51000        8.46908        3.20714
H          1.46100        5.86405       -0.10556
H          2.14300       -0.48366        0.59785
H          2.18000        0.18787        4.01160
H          2.28100       -1.03585        2.71726
P          3.37998        7.36179        5.01918
O          3.59998        7.99324        6.33786
O          4.16998        7.91424        3.89549
O          3.62998        5.78898        5.12256
C          2.68998        4.98110        5.87316
C          3.41998        3.83960        6.54718
O          3.62998        2.77516        5.56770
C          4.81998        4.14869        7.07423
O          5.20998        3.26503        8.11801
C          5.69998        3.90740        5.85609
C          4.98998        2.74440        5.17763
N          5.03998        2.79241        3.69315
C          4.95998        3.89253        2.87643
N          5.02998        3.60606        1.61209
C          5.17998        2.23180        1.59128
C          5.30998        1.30498        0.53398
N          5.31998        1.64703       -0.75059
N          5.42998        0.00894        0.85995
C          5.41998       -0.33415        2.14412
N          5.29998        0.42450        3.21207
C          5.17998        1.71606        2.85377
H          2.20198        5.60496        6.63559
H          1.92998        4.57474        5.19079
H          2.79798        3.48598        7.37791
H          5.45298        1.80589        5.51590
H          5.73298        4.79216        5.20216
H          6.72398        3.63347        6.15331
H          4.88998        5.19141        7.42149
H          4.84898        4.90843        3.25386
H          5.22998        2.63610       -1.02124
H          5.41898        0.92160       -1.47589
H          5.52698       -1.39490        2.33975
P          6.75996        3.25519        8.29409
O          6.97996        3.03378        9.73839
O          7.54996        4.34415        7.67599
O          7.00996        1.89744        7.49350
C          6.06996        0.80690        7.65660
C          6.79996       -0.51573        7.57246
O          7.00996       -0.84332        6.16257
C          8.19996       -0.55718        8.18105
O          8.58996       -1.87535        8.54667
C          9.07996       -0.07040        7.03965
C          8.36996       -0.64913        5.82394
N          8.41996        0.22673        4.62344
C          8.56996       -0.38564        3.39819
O          8.65996       -1.59310        3.27286
N          8.60996        0.46886        2.31296
C          8.51996        1.83883        2.34501
O          8.56996        2.50159        1.30171
C          8.36996        2.39301        3.66850
C          8.25996        3.88499        3.75058
C          8.31996        1.59023        4.75092
H          5.57996        0.89297        8.63897
H          5.31096        0.85538        6.86290
H          6.17796       -1.27571        8.05865
H          8.83296       -1.61457        5.57282
H          9.11196        1.02899        6.99775
H         10.10396       -0.46410        7.12991
H          8.26996        0.10866        9.05535
H          8.19896        2.03060        5.74043
H          9.22896        4.31000        4.05398
H          7.49196        4.15613        4.48823
H          7.97996        4.28682        2.76466
H          8.71596        0.04524        1.41328
P         10.13994       -1.98266        8.68661
O         10.35994       -2.97949        9.75618
O         10.92994       -0.73481        8.79034
O         10.38994       -2.65350        7.26029
C          9.44994       -3.64737        6.78249
C         10.17994       -4.69183        5.96614
O         10.38994       -4.16895        4.61743
C         11.57994       -5.06953        6.44642
O         11.96994       -6.36399        6.00517
C         12.45994       -4.02375        5.77677
C         11.74994       -3.81708        4.44629
N         11.79994       -2.41767        3.94864
C         11.71994       -1.25549        4.67433
N         11.78994       -0.18321        3.94575
C         11.93994       -0.66591        2.65888
C         12.06994       -0.02030        1.40985
N         12.07994        1.30043        1.25896
N         12.18994       -0.79724        0.32250
C         12.17994       -2.11798        0.47228
N         12.05994       -2.83494        1.56866
C         11.93994       -2.02956        2.64004
H          8.96194       -4.12918        7.64176
H          8.68994       -3.16063        6.15492
H          9.55794       -5.59433        5.94046
H         12.21294       -4.47485        3.69624
H         12.49294       -3.09178        6.36146
H         13.48394       -4.40050        5.63036
H         11.64994       -5.01183        7.54392
H         11.60894       -1.23568        5.75790
H         11.98994        1.91372        2.08077
H         12.17894        1.71057        0.31869
H         12.28694       -2.68763       -0.44367
P         13.51992       -6.53149        6.06034
O         13.73992       -7.95684        6.38190
O         14.30992       -5.55828        6.84821
O         13.76992       -6.28229        4.50396
C         12.82992       -6.83342        3.54886
C         13.55992       -7.23742        2.28645
O         13.76992       -6.04467        1.46641
C         14.95992       -7.81908        2.47021
O         15.34992       -8.64101        1.37674
C         15.83992       -6.57875        2.50633
C         15.12992       -5.65850        1.52346
N         15.17992       -4.22101        1.90019
C         15.32992       -3.28309        0.88392
O         15.41992       -3.67878       -0.28753
N         15.37992       -1.85640        1.37641
C         15.27992       -1.57362        2.48341
N         15.32992       -0.27499        2.74627
C         15.12992       -2.51615        3.54845
C         15.07992       -3.82940        3.19935
H         12.33992       -7.71467        3.98695
H         12.07092       -6.07599        3.30355
H         12.93792       -7.96863        1.75684
H         15.59292       -5.77846        0.53311
H         15.87192       -6.13809        3.51442
H         16.86392       -6.80660        2.17283
H         15.02992       -8.38969        3.40944
H         14.95792       -4.58513        3.97304
H         15.05992       -2.19799        4.58764
H         15.44792        0.40131        1.97769
H         15.25092        0.05652        3.71757
P         16.89990       -8.81048        1.32797
O         17.11990      -10.17030        0.79080
O         17.68990       -8.45116        2.52745
O         17.14990       -7.72785        0.18241
C         16.20990       -7.64617       -0.91732
C         16.93990       -7.26784       -2.18783
O         17.14990       -5.82134       -2.19383
C         18.33990       -7.85291       -2.36395
O         18.72990       -7.91508       -3.73014
C         19.21990       -6.84748       -1.63511
C         18.50990       -5.53347       -1.92880
N         18.55990       -4.55896       -0.80795
C         18.47990       -4.80989        0.53902
N         18.54990       -3.73993        1.27100
C         18.69990       -2.71837        0.35152
C         18.82990       -1.31981        0.49618
N         18.83990       -0.69683        1.67049
N         18.94990       -0.59147       -0.62431
C         18.93990       -1.21342       -1.79903
N         18.81990       -2.49595       -2.06588
C         18.69990       -3.19902       -0.92474
H         15.72190       -8.62207       -1.05190
H         15.44990       -6.88416       -0.69350
H         16.31790       -7.57366       -3.03732
H         18.97290       -5.07558       -2.81513
H         19.25290       -7.05127       -0.55396
H         20.24390       -6.84883       -2.03931
H         18.40990       -8.85347       -1.90928
H         18.36890       -5.81132        0.95334
H         18.74990       -1.23778        2.54162
H         18.93890        0.32828        1.70875
H         19.04690       -0.56890       -2.66393
H         18.59890       -7.05697       -4.13859
H         22.62090        9.39699        1.46824
O         22.50090        8.87762        0.68487
P         21.05990        8.90544        0.28501
O         20.83990       10.19184       -0.40796
O         20.26990        8.68835        1.51820
O         20.80990        7.69587       -0.72560
C         21.74990        7.48344       -1.80907
C         21.01990        6.96037       -3.02678
O         20.80990        5.52229       -2.86229
C         19.61990        7.51885       -3.26964
O         19.22990        7.42187       -4.63447
C         18.73990        6.60694       -2.42815
C         19.44990        5.26756       -2.56529
N         19.39990        4.43146       -1.33783
C         19.24990        3.07087       -1.50311
O         19.15990        2.54854       -2.59895
N         19.20990        2.33591       -0.33635
C         19.29990        2.82495        0.94555
O         19.24990        2.06530        1.92014
C         19.44990        4.25763        1.02385
C         19.55990        4.83540        2.40168
C         19.49990        5.00910       -0.09522
H         22.24090        8.43676       -2.05740
H         22.50990        6.75202       -1.49707
H         21.64290        7.16335       -3.90585
H         18.98790        4.70795       -3.39093
H         18.70890        6.93633       -1.37859
H         17.71690        6.55988       -2.82926
H         19.55090        8.56585       -2.93586
H         19.62190        6.08799       -0.01222
H         18.59190        5.26378        2.70032
H         20.32890        5.62217        2.41017
H         19.84090        4.04146        3.11073
H         19.10490        1.34608       -0.43296
P         17.67992        7.51857       -4.78113
O         17.45992        8.19108       -6.07834
O         16.88992        8.03389       -3.63993
O         17.42992        5.94988       -4.93476
C         18.36992        5.16537       -5.71178
C         17.63992        4.04588       -6.42176
O         17.42992        2.95035       -5.47575
C         16.23992        4.37797       -6.93349
O         15.84992        3.52155       -8.01007
C         15.35992        4.09166       -5.72886
C         16.06992        2.90768       -5.08773
N         16.01992        2.90845       -3.60247
C         16.09992        3.97429       -2.72717
N         16.01992        3.63539       -1.46640
C         15.87992        2.24743       -1.49635
C         15.74992        1.31831       -0.43747
O         15.72992        1.52412        0.77534
N         15.62992        0.00387       -0.91999
C         15.62992       -0.35618       -2.25302
N         15.49992       -1.65909       -2.51148
N         15.75992        0.51833       -3.24891
C         15.87992        1.79755       -2.80316
H         18.85892        5.81315       -6.45398
H         19.13092        4.73682       -5.04195
H         18.26292        3.71840       -7.26242
H         15.60792        1.98039       -5.45568
H         15.32792        4.95518       -5.04713
H         14.33692        3.82732       -6.03464
H         16.17092        5.42481       -7.25263
H         16.21992        5.00579       -3.05811
H         15.53792       -0.72780       -0.24523
H         15.50092       -1.99475       -3.48557
H         15.39992       -2.33089       -1.73545
P         14.29994        3.51883       -8.18572
O         14.07994        3.34374       -9.63636
O         13.50994        4.58746       -7.53310
O         14.04994        2.13617       -7.42898
C         14.98994        1.04999       -7.62706
C         14.25994       -0.27465       -7.58503
O         14.04994       -0.64691       -6.18627
C         12.85994       -0.29668       -8.19363
O         12.46994       -1.60259       -8.60199
C         11.97994        0.15349       -7.03733
C         12.68994       -0.46351       -5.84064
N         12.63994        0.37365       -4.61390
C         12.48994       -0.27729       -3.40774
O         12.39994       -1.48821       -3.32187
N         12.44994        0.54031       -2.29732
C         12.53994        1.91226       -2.28423
O         12.48994        2.54195       -1.22102
C         12.68994        2.50856       -3.58926
C         12.79994        4.00223       -3.62372
C         12.73994        1.74139       -4.69762
H         15.48094        1.16712       -8.60521
H         15.74994        1.07321       -6.83222
H         14.88294       -1.01878       -8.09514
H         12.22794       -1.43652       -5.62135
H         11.94894        1.25083       -6.96050
H         10.95694       -0.23709       -7.14006
H         12.79094        0.39654       -9.04631
H         12.86194        2.21282       -5.67161
H         11.83194        4.43673       -3.91338
H         13.56894        4.29758       -4.35299
H         13.08094        4.37220       -2.62561
H         12.34494        0.08875       -1.41121
P         10.91996       -1.70378       -8.74558
O         10.69996       -2.66563       -9.84553
O         10.12996       -0.45321       -8.80835
O         10.66996       -2.41990       -7.34146
C         11.60996       -3.42982       -6.89505
C         10.87996       -4.49972       -6.11233
O         10.66996       -4.01935       -4.74692
C          9.47996       -4.85475       -6.60843
O          9.08996       -6.16980       -6.20452
C          8.59996       -3.83800       -5.90181
C          9.30996       -3.67374       -4.56544
N          9.25996       -2.28685       -4.02582
C          9.33996       -1.10533       -4.71210
N          9.26996       -0.05690       -3.94959
C          9.11996       -0.58031       -2.67784
C          8.98996        0.02481       -1.40978
N          8.97996        1.34004       -1.21672
N          8.86996       -0.78658       -0.34769
C          8.87996       -2.10189       -0.53940
N          8.99996       -2.78362       -1.65803
C          9.11996       -1.94457       -2.70325
H         12.09896       -3.88406       -7.76921
H         12.37096       -2.95661       -6.25437
H         11.50296       -5.40192       -6.11462
H          8.84796       -4.35428       -3.83602
H          8.56796       -2.88750       -6.45566
H          7.57696       -4.21862       -5.76665
H          9.41096       -4.76886       -7.69865
H          9.45196       -1.05087       -5.79448
H          9.07096        1.97930       -2.01849
H          8.88196        1.72087       -0.26396
H          8.77396       -2.70038        0.35797
P          7.53998       -6.33429       -6.26616
O          7.31998       -7.74863       -6.63315
O          6.74998       -5.33638       -7.02250
O          7.28998       -6.13501       -4.70261
C          8.22998       -6.71623       -3.76389
C          7.49998       -7.16104       -2.51546
O          7.28998       -5.99498       -1.65791
C          6.09998       -7.73563       -2.71729
O          5.70998       -8.59286       -1.65085
C          5.21998       -6.49479       -2.71390
C          5.92998       -5.60623       -1.70236
N          5.87998       -4.15844       -2.03346
C          5.72998       -3.27348       -0.98686
O          5.63998       -3.63595        0.17172
N          5.68998       -1.94112       -1.34226
C          5.77998       -1.42770       -2.61460
O          5.72998       -0.20794       -2.81232
C          5.92998       -2.42467       -3.64645
C          6.03998       -1.91105       -5.04947
C          5.97998       -3.73669       -3.33725
H          8.72098       -7.58397       -4.23028
H          8.98998       -5.96785       -3.49511
H          8.12298       -7.90776       -2.00913
H          5.46798       -5.75759       -0.71649
H          5.18898       -6.02237       -3.70733
H          4.19698       -6.73312       -2.38786
H          6.03098       -8.27610       -3.67412
H          6.10198       -4.47112       -4.13193
H          5.07198       -2.02194       -5.55975
H          6.80898       -2.48201       -5.59083
H          6.32098       -0.84677       -5.02921
H          5.58498       -1.28124       -0.59819
P          4.16000       -8.76350       -1.60911
O          3.94000      -10.13881       -1.11561
O          3.37000       -8.36503       -2.79617
O          3.91000       -7.71906       -0.42957
C          4.85000       -7.67148        0.67369
C          4.12000       -7.33666        1.94851
O          3.91000       -5.88816        2.00759
C          2.72000       -7.92526        2.10483
O          2.33000       -8.03063        3.47693
C          1.84000       -6.89602        1.41652
C          2.55000       -5.59201        1.75185
N          2.50000       -4.58235        0.66255
C          2.35000       -3.24451        1.01643
O          2.26000       -2.94958        2.21722
N          2.30000       -2.30408       -0.16524
C          2.40000       -2.66048       -1.25118
N          2.35000       -1.70787       -2.16813
C          2.55000       -4.02732       -1.64413
C          2.60000       -4.94880       -0.63991
H          5.34000       -8.65017        0.77707
H          5.61000       -6.90173        0.47415
H          4.74300       -7.66642        2.79492
H          2.08800       -5.16254        2.65229
H          1.80800       -7.06532        0.32943
H          0.81700       -6.91023        1.82047
H          2.65100       -8.90873        1.62657
H          2.72300       -6.00104       -0.89220
H          2.62100       -4.31733       -2.69229
H          2.23300       -0.72483       -1.88440
H          2.42900       -1.94716       -3.16734
H          1.61300       -8.66322        3.55694
