18

C     -0.0736159    -2.5040164    -0.3982293    
C     -1.0354352    -1.5678634    -0.1127909    
C     -0.6805656    -0.1922464     0.0634566    
C      0.6811546     0.1915396    -0.0591232    
C      1.6627100    -0.8074171    -0.3556903    
C      1.2936873    -2.1186524    -0.5213346    
H     -2.0817074    -1.8543316    -0.0180242    
C     -1.6623150     0.8069427     0.3585947    
C      1.0358376     1.5673795     0.1157515    
H      2.7047188    -0.5053259    -0.4489066    
H      2.0351213    -2.8835135    -0.7479126    
H     -0.3367680    -3.5520099    -0.5343720    
C     -1.2939457     2.1189605     0.5194278    
C      0.0733684     2.5043113     0.3964043    
H     -2.7045309     0.5050995     0.4502864    
H     -2.0357585     2.8842746     0.7432201    
H      2.0819076     1.8540901     0.0194957    
H      0.3361451     3.5527548     0.5297791    
