18

C     -0.0681147    -2.4824016    -0.3945113    
C     -1.0255967    -1.5487803    -0.1125806    
C     -0.6807493    -0.1918613     0.0613378    
C      0.6807493     0.1918613    -0.0613378    
C      1.6446237    -0.7962308    -0.3529551    
C      1.2785127    -2.1028839    -0.5158010    
H     -2.0630868    -1.8358233    -0.0182730    
C     -1.6446236     0.7962308     0.3529552    
C      1.0255967     1.5487803     0.1125808    
H      2.6794824    -0.4991671    -0.4450686    
H      2.0216541    -2.8538778    -0.7388441    
H     -0.3393575    -3.5192527    -0.5262425    
C     -1.2785127     2.1028838     0.5158014    
C      0.0681148     2.4824016     0.3945118    
H     -2.6794824     0.4991670     0.4450685    
H     -2.0216542     2.8538777     0.7388446    
H      2.0630868     1.8358235     0.0182731    
H      0.3393575     3.5192527     0.5262433    
