18

C     -0.0735985    -2.5040231    -0.3972685    
C     -1.0358885    -1.5675909    -0.1142337    
C     -0.6804728    -0.1917844     0.0612516    
C      0.6804735     0.1917818    -0.0612495    
C      1.6627150    -0.8070223    -0.3571399    
C      1.2938394    -2.1186273    -0.5203541    
H     -2.0822906    -1.8528452    -0.0184742    
C     -1.6627142     0.8070198     0.3571424    
C      1.0358894     1.5675883     0.1142368    
H      2.7043696    -0.5037832    -0.4493302    
H      2.0348938    -2.8842094    -0.7455457    
H     -0.3358304    -3.5523692    -0.5321524    
C     -1.2938384     2.1186245     0.5203584    
C      0.0735997     2.5040202     0.3972731    
H     -2.7043689     0.5037808     0.4493316    
H     -2.0348925     2.8842065     0.7455513    
H      2.0822914     1.8528427     0.0184767    
H      0.3358316     3.5523661     0.5321588    
