17

C         -1.23263        1.50632       -0.27766
O         -0.56167        2.67852       -0.24045
O         -2.42521        1.50073       -0.54567
C         -0.52094        0.19784       -0.00115
N          0.91187        0.40927        0.23246
H         -0.63492       -0.44102       -0.90524
C         -1.16479       -0.53842        1.19863
C         -0.52860       -1.91227        1.42227
H          1.34853        0.83910       -0.61554
H          1.06252        1.04463        1.05005
H         -1.00474        3.52034       -0.41813
H         -2.24391       -0.72506        0.98200
O         -1.03437        0.21891        2.37564
H         -1.80424        0.84493        2.40699
H         -0.64107       -2.54108        0.51332
H         -1.03175       -2.42584        2.26899
H          0.55133       -1.81446        1.66280
