66

O   14.146    158.892    36.995
C   13.111    158.986    37.635
N   12.462    160.257    37.745
C   13.012    161.426    37.076
C   12.559    157.773    38.313
C   12.266    157.805    39.676
C   11.767    156.673    40.308
C   11.558    155.501    39.574
C   12.352    156.592    37.579
C   11.856    155.471    38.208
S   12.701    156.518    35.819
C   11.449    155.406    35.174
C   10.094    155.605    35.51
C   9.106    154.731    35.021
C   11.829    154.355    34.355
C   10.82    153.466    33.853
N   10.913    152.363    33.024
N   9.646    151.866    32.837
C   8.75    152.61    33.518
C   9.49    153.65    34.178
C   7.267    152.35    33.545
C   6.38    153.148    34.222
C   4.925    152.765    34.291
N   4.422    151.89    33.398
C   3.118    151.527    33.431
C   2.273    152.066    34.398
C   2.771    152.972    35.327
C   4.118    153.327    35.268
H   11.6378    160.3407    38.277
H   13.9016    161.15    36.5494
H   13.2458    162.1757    37.8027
H   12.2931    161.812    36.3839
H   12.4201    158.6709    40.216
H   11.551    156.6968    41.3169
H   11.1843    154.6594    40.0399
H   11.7036    154.6047    37.6683
H   9.826    156.3952    36.1173
H   8.1146    154.8718    35.2704
H   12.8214    154.2136    34.1099
H   11.7412    151.9983    32.6362
H   6.901    151.5337    33.0304
H   6.7095    154.0102    34.6837
H   2.7512    150.8526    32.7413
H   1.2781    151.793    34.4248
H   2.1536    153.3755    36.0489
H   4.51    154.0008    35.9443
N   9.047    161.89    33.21
C   9.361    160.673    32.472
C   8.205    160.305    31.549
O   7.052    160.205    31.987
C   9.656    159.499    33.415
C   10.362    158.393    32.651
C   10.519    159.966    34.584
C   9.801    162.976    33.089
O   10.816    163.003    32.386
H   8.2643    161.907    33.807
H   10.2396    160.8658    31.8926
H   8.3861    160.1373    30.547
H   8.7328    159.1216    33.8025
H   11.2867    158.7635    32.2604
H   9.7406    158.0637    31.8446
H   10.5563    157.5724    33.3096
H   11.4473    160.3468    34.2122
H   10.7085    159.1415    35.2391
H   10.0063    160.7371    35.1202
H   9.5288    163.8294    33.6015
