64

O   14.146    158.892    36.995
C   13.111    158.986    37.635
N   12.462    160.257    37.745
C   13.012    161.426    37.076
C   12.559    157.773    38.313
C   12.266    157.805    39.676
C   11.767    156.673    40.308
C   11.558    155.501    39.574
C   12.352    156.592    37.579
C   11.856    155.471    38.208
S   12.701    156.518    35.819
C   11.449    155.406    35.174
C   10.094    155.605    35.51
C   9.106    154.731    35.021
C   11.829    154.355    34.355
C   10.82    153.466    33.853
N   10.913    152.363    33.024
N   9.646    151.866    32.837
C   8.75    152.61    33.518
C   9.49    153.65    34.178
C   7.267    152.35    33.545
C   6.38    153.148    34.222
C   4.925    152.765    34.291
N   4.422    151.89    33.398
C   3.118    151.527    33.431
C   2.273    152.066    34.398
C   2.771    152.972    35.327
C   4.118    153.327    35.268
H   11.6378    160.3407    38.277
H   13.9016    161.15    36.5494
H   13.2458    162.1757    37.8027
H   12.2931    161.812    36.3839
H   12.4201    158.6709    40.216
H   11.551    156.6968    41.3169
H   11.1843    154.6594    40.0399
H   11.7036    154.6047    37.6683
H   9.826    156.3952    36.1173
H   8.1146    154.8718    35.2704
H   12.8214    154.2136    34.1099
H   11.7412    151.9983    32.6362
H   6.901    151.5337    33.0304
H   6.7095    154.0102    34.6837
H   2.7512    150.8526    32.7413
H   1.2781    151.793    34.4248
H   2.1536    153.3755    36.0489
H   4.51    154.0008    35.9443
N   9.817    152.878    44.301
C   10.948    153.129    43.415
C   11.499    151.858    42.781
O   12.545    151.875    42.147
C   12.054    153.886    44.149
C   11.669    155.316    44.457
O   10.951    155.952    43.689
N   12.14    155.828    45.587
C   8.575    153.179    43.942
O   8.298    153.677    42.856
H   9.9783    152.4763    45.1852
H   10.5791    153.7371    42.6156
H   10.9828    150.9708    42.8878
H   12.9315    153.8909    43.5367
H   12.2275    153.3876    45.0798
H   11.9204    156.7547    45.8367
H   12.709    155.2812    46.1756
H   7.8089    152.9855    44.6058
