69

O      5.8709322     3.0136311     2.1162321    
C      4.8306537     3.1398397     2.7638836    
N      4.2114907     4.3331250     2.8882893    
C      4.7192499     5.5311636     2.2390329    
C      4.2417887     1.9317130     3.4335023    
C      3.9694906     1.9361509     4.7985883    
C      3.4857065     0.8074600     5.4356967    
C      3.2786728    -0.3532838     4.7114145    
C      4.0453973     0.7435650     2.7108515    
C      3.5673514    -0.3860634     3.3607502    
S      4.4095601     0.6566408     0.9633319    
C      3.1615652    -0.4897707     0.3350826    
C      1.8112514    -0.2835466     0.6532626    
C      0.8353958    -1.1234337     0.1771331    
C      3.5362396    -1.5270394    -0.4976696    
C      2.5377643    -2.3778834    -0.9891508    
N      2.5729190    -3.4728560    -1.7983783    
N      1.3440561    -3.9823028    -1.9976082    
C      0.4595480    -3.2404444    -1.3300543    
C      1.1760208    -2.1896020    -0.6548831    
C     -0.9765297    -3.5012591    -1.3067051    
C     -1.9109647    -2.7693897    -0.6660666    
C     -3.3374488    -3.1158027    -0.5899100    
N     -3.8451173    -3.9938394    -1.4663637    
C     -5.1266383    -4.3150176    -1.3993154    
C     -5.9970459    -3.7975031    -0.4529258    
C     -5.4902077    -2.8945755     0.4659295    
C     -4.1546022    -2.5429906     0.3964052    
H      3.3618806     4.4382996     3.4228019    
H      5.6242021     5.2659712     1.6975747    
H      4.9583136     6.2997313     2.9714309    
H      3.9914432     5.9288015     1.5336941    
H      4.1430614     2.8316309     5.3683814    
H      3.2677928     0.8328495     6.4879669    
H      2.8965016    -1.2336036     5.1957550    
H      3.4163348    -1.2901592     2.7987723    
H      1.5422070     0.5441044     1.2850100    
H     -0.1874513    -0.9575374     0.4468450    
H      4.5700621    -1.6672403    -0.7512238    
H      3.3968030    -3.8842246    -2.2182502    
H     -1.3374005    -4.3665530    -1.8394599    
H     -1.6214836    -1.8725496    -0.1436542    
H     -5.4949676    -5.0212234    -2.1304747    
H     -7.0309026    -4.0877551    -0.4325811    
H     -6.1342558    -2.4753989     1.2196549    
H     -3.7483484    -1.8451962     1.1062387    
N     -3.9054994     3.2787054    -2.6870369    
C     -4.1407335     2.0042056    -2.0378235    
C     -4.7111405     2.1967045    -0.6459894    
O     -4.4127318     3.1090948     0.0811514    
C     -2.8331270     1.2128641    -1.9328135    
C     -2.3308173     0.6881070    -3.2787760    
C     -0.8681871     0.2728707    -3.1775529    
C     -3.1884449    -0.4903814    -3.7055697    
C     -4.9070411     3.9558488    -3.2412635    
O     -6.0665482     3.5755007    -3.2793650    
H     -2.9737405     3.6600940    -2.6733873    
H     -4.8719570     1.4581534    -2.6366567    
H     -5.4286310     1.4345159    -0.3122483    
H     -2.0790275     1.8598809    -1.4897801    
H     -3.0109513     0.3560397    -1.2864670    
H     -2.4042666     1.4785164    -4.0269138    
H     -0.7486939    -0.5199901    -2.4465905    
H     -0.2520271     1.1168488    -2.8858697    
H     -0.5227041    -0.0915578    -4.1396277    
H     -3.1244828    -1.2808658    -2.9628508    
H     -2.8492889    -0.8786265    -4.6577974    
H     -4.2242822    -0.1842433    -3.8024461    
H     -4.6178531     4.9094171    -3.6943830    
