57

O   14.146    158.892    36.995
C   13.111    158.986    37.635
N   12.462    160.257    37.745
C   13.012    161.426    37.076
C   12.559    157.773    38.313
C   12.266    157.805    39.676
C   11.767    156.673    40.308
C   11.558    155.501    39.574
C   12.352    156.592    37.579
C   11.856    155.471    38.208
S   12.701    156.518    35.819
C   11.449    155.406    35.174
C   10.094    155.605    35.51
C   9.106    154.731    35.021
C   11.829    154.355    34.355
C   10.82    153.466    33.853
N   10.913    152.363    33.024
N   9.646    151.866    32.837
C   8.75    152.61    33.518
C   9.49    153.65    34.178
C   7.267    152.35    33.545
C   6.38    153.148    34.222
C   4.925    152.765    34.291
N   4.422    151.89    33.398
C   3.118    151.527    33.431
C   2.273    152.066    34.398
C   2.771    152.972    35.327
C   4.118    153.327    35.268
H   11.6378    160.3407    38.277
H   13.9016    161.15    36.5494
H   13.2458    162.1757    37.8027
H   12.2931    161.812    36.3839
H   12.4201    158.6709    40.216
H   11.551    156.6968    41.3169
H   11.1843    154.6594    40.0399
H   11.7036    154.6047    37.6683
H   9.826    156.3952    36.1173
H   8.1146    154.8718    35.2704
H   12.8214    154.2136    34.1099
H   11.7412    151.9983    32.6362
H   6.901    151.5337    33.0304
H   6.7095    154.0102    34.6837
H   2.7512    150.8526    32.7413
H   1.2781    151.793    34.4248
H   2.1536    153.3755    36.0489
H   4.51    154.0008    35.9443
N   4.683    148.95    35.899
C   4.829    150.125    36.746
C   5.57    149.859    38.052
O   6.309    148.875    38.182
C   3.841    147.978    36.229
O   3.173    148.007    37.261
H   5.2139    148.8754    35.0733
H   3.8525    150.4932    36.982
H   5.414    150.8325    36.1963
H   5.4529    150.5121    38.8425
H   3.7436    147.1685    35.5963
