71

O      5.3176834     2.7673195     0.3581833    
C      4.2759358     2.9005839     1.0059820    
N      3.6654291     4.0925310     1.1367683    
C      4.1668469     5.2883929     0.4814157    
C      3.6837950     1.6921811     1.6751722    
C      3.4114255     1.6966783     3.0403037    
C      2.9273736     0.5677429     3.6775209    
C      2.7204351    -0.5933070     2.9534013    
C      3.4863594     0.5038474     0.9531127    
C      3.0086073    -0.6260691     1.6026890    
S      3.8522586     0.4170638    -0.7941524    
C      2.6047324    -0.7303259    -1.4219761    
C      1.2544628    -0.5247433    -1.1036947    
C      0.2783036    -1.3645932    -1.5790662    
C      2.9796597    -1.7674510    -2.2551088    
C      1.9810593    -2.6183338    -2.7461383    
N      2.0163481    -3.7132091    -3.5558940    
N      0.7872175    -4.2230999    -3.7548396    
C     -0.0970686    -3.4814467    -3.0862460    
C      0.6192530    -2.4304680    -2.4111381    
C     -1.5329404    -3.7425814    -3.0635413    
C     -2.4688435    -3.0124893    -2.4231152    
C     -3.8941657    -3.3645812    -2.3569483    
N     -4.4034237    -4.2425910    -3.2315400    
C     -5.6857805    -4.5602749    -3.1603190    
C     -6.5593360    -4.0450696    -2.2149362    
C     -6.0546173    -3.1412358    -1.2982993    
C     -4.7207820    -2.7964512    -1.3800023    
H      2.8013388     4.2079915     1.6512777    
H      5.0707829     5.0261892    -0.0625309    
H      4.4011061     6.0589794     1.2131126    
H      3.4320302     5.6839503    -0.2181093    
H      3.5849445     2.5926187     3.6094326    
H      2.7104006     0.5932405     4.7302921    
H      2.3390816    -1.4739063     3.4379326    
H      2.8583778    -1.5303562     1.0412068    
H      0.9831229     0.3013905    -0.4717363    
H     -0.7435724    -1.1969942    -1.3074576    
H      4.0134518    -1.9074781    -2.5090504    
H      2.8402359    -4.1245356    -3.9757622    
H     -1.8926567    -4.6081664    -3.5969936    
H     -2.1785194    -2.1150194    -1.9024050    
H     -6.0544781    -5.2653869    -3.8915116    
H     -7.5924591    -4.3343994    -2.1941759    
H     -6.6948282    -2.7173467    -0.5438328    
H     -4.3178153    -2.0853841    -0.6929411    
N     -2.2979363     3.8528852     2.0711791    
C     -0.8687670     3.7026320     1.9233527    
C     -0.1899811     5.0075343     1.5605252    
O      1.0037088     5.1347741     1.4597490    
C     -0.5001988     2.6130783     0.8929245    
C     -1.2613735     1.3249844     1.0587400    
C     -0.9499578     0.4204843     2.0666821    
C     -2.2814390     0.9875077     0.1844554    
C     -1.6382164    -0.7667574     2.2035169    
C     -2.9771996    -0.1988606     0.3127264    
C     -2.6670728    -1.0953994     1.3243252    
O     -3.3139108    -2.2769821     1.5101581    
C     -2.8390221     3.9953427     3.2819597    
O     -2.2030133     4.0187175     4.3217067    
H     -2.8776832     3.8146642     1.2487427    
H     -0.4808745     3.4048018     2.9045499    
H     -0.8486891     5.8684385     1.3855102    
H     -0.6854620     3.0122562    -0.1028344    
H      0.5622348     2.4102642     1.0195841    
H     -0.1529627     0.6462451     2.7515278    
H     -2.5395111     1.6508730    -0.6205158    
H     -1.3973738    -1.4550018     2.9914676    
H     -3.7672581    -0.4144444    -0.3803238    
H     -4.0221206    -2.4483272     0.8688658    
H     -3.9273297     4.1015178     3.2905437    
