64

O      4.1652791     4.1181283    -0.9430774    
C      3.1250389     4.2434389    -0.2954223    
N      2.5065953     5.4371106    -0.1702811    
C      3.0139649     6.6349878    -0.8202186    
C      2.5364165     3.0353028     0.3747840    
C      2.2640340     3.0388839     1.7401074    
C      1.7809164     1.9105019     2.3790117    
C      1.5746027     0.7507102     1.6527663    
C      2.3404109     1.8473589    -0.3477042    
C      1.8628522     0.7176782     0.3019353    
S      2.7037244     1.7592780    -2.0956847    
C      1.4566995     0.6140112    -2.7243743    
C      0.1064112     0.8197880    -2.4056821    
C     -0.8694603    -0.0206411    -2.8812092    
C      1.8312796    -0.4233507    -3.5570596    
C      0.8328526    -1.2743951    -4.0481325    
N      0.8683360    -2.3690434    -4.8576637    
N     -0.3612647    -2.8790697    -5.0567938    
C     -1.2455824    -2.1375146    -4.3885431    
C     -0.5289435    -1.0866552    -3.7134288    
C     -2.6817365    -2.3984456    -4.3649262    
C     -3.6160291    -1.6675048    -3.7236180    
C     -5.0424769    -2.0133639    -3.6485750    
N     -5.5505859    -2.8901924    -4.5260490    
C     -6.8325893    -3.2113165    -4.4580911    
C     -7.7028194    -2.6941499    -3.5120270    
C     -7.1956481    -1.7915524    -2.5928729    
C     -5.8598815    -1.4412738    -2.6617334    
H      1.6565064     5.5412040     0.3636126    
H      3.9187080     6.3693561    -1.3617237    
H      3.2528365     7.4035224    -0.0877626    
H      2.2860909     7.0322686    -1.5257118    
H      2.4368050     3.9346550     2.3096928    
H      1.5571935     1.9338205     3.4312421    
H      1.1907518    -0.1298474     2.1366770    
H      1.7108936    -0.1866950    -0.2596556    
H     -0.1631051     1.6474183    -1.7737539    
H     -1.8926112     0.1451600    -2.6124330    
H      2.8650547    -0.5631694    -3.8106609    
H      1.6919932    -2.7805663    -5.2776403    
H     -3.0424551    -3.2637556    -4.8979627    
H     -3.3273424    -0.7692839    -3.2038695    
H     -7.2003958    -3.9174075    -5.1897526    
H     -8.7367517    -2.9840092    -3.4918794    
H     -7.8394530    -1.3715250    -1.8394886    
H     -5.4530016    -0.7431370    -1.9528708    
N     -0.1716120    -1.9050614     6.3696342    
C      0.9621414    -1.6444380     5.5107839    
C      1.5321710    -2.8854880     4.8623988    
O      2.5586649    -2.8907931     4.2329123    
C      2.0604585    -0.8821874     6.2528373    
C      1.6633053     0.5582588     6.5320227    
O      0.9609603     1.2032119     5.7647541    
N      2.1422628     1.0565816     7.6745522    
C     -1.4096805    -1.5757150     5.9944982    
O     -1.7005290    -1.0838989     4.9193705    
H     -0.0061658    -2.2980506     7.2825384    
H      0.5822614    -1.0117125     4.6949076    
H      0.9525666    -3.8076799     4.9870894    
H      2.9523258    -0.8766322     5.6247695    
H      2.2706358    -1.3934733     7.1867208    
H      1.9317787     2.0079740     7.9232247    
H      2.7332357     0.5121744     8.2757729    
H     -2.1841550    -1.7920215     6.7370045    
