60

O      3.1954821     4.4553261     0.3127706    
C      2.1551846     4.5815199     0.9604530    
N      1.5364679     5.7751489     1.0852856    
C      2.0438946     6.9730420     0.4357370    
C      1.5666956     3.3735671     1.6303764    
C      1.2945074     3.3780317     2.9955535    
C      0.8106818     2.2492427     3.6325352    
C      0.6037956     1.0887511     2.9083688    
C      1.3698167     2.1854438     0.9077150    
C      0.8924606     1.0557586     1.5577678    
S      1.7359909     2.0968936    -0.8405986    
C      0.4869766     0.9518085    -1.4677475    
C     -0.8633046     1.1579179    -1.1492040    
C     -1.8392504     0.3177293    -1.6251663    
C      0.8616367    -0.0854155    -2.3005794    
C     -0.1369277    -0.9360825    -2.7923019    
N     -0.1014422    -2.0309626    -3.6014071    
N     -1.3310681    -2.5405093    -3.8010255    
C     -2.2153715    -1.7990449    -3.1327202    
C     -1.4987240    -0.7482683    -2.4575105    
C     -3.6515660    -2.0601089    -3.1090415    
C     -4.5857732    -1.3293482    -2.4674777    
C     -6.0123229    -1.6749509    -2.3925368    
N     -6.5203778    -2.5518537    -3.2700928    
C     -7.8022841    -2.8729711    -3.2022708    
C     -8.6725654    -2.3557708    -2.2560748    
C     -8.1654731    -1.4532121    -1.3369428    
C     -6.8296805    -1.1030311    -1.4058081    
H      0.6865057     5.8804208     1.6193042    
H      2.9488817     6.7080709    -0.1058670    
H      2.2830560     7.7418457     1.1679224    
H      1.3163289     7.3707982    -0.2699033    
H      1.4678066     4.2738440     3.5648528    
H      0.5924063     2.2754572     4.6846221    
H      0.2202193     0.2094733     3.3927595    
H      0.7407541     0.1529100     0.9944380    
H     -1.1328865     1.9861888    -0.5183772    
H     -2.8626431     0.4834177    -1.3574386    
H      1.8952211    -0.2252915    -2.5551654    
H      0.7221161    -2.4421419    -4.0220048    
H     -4.0119892    -2.9254193    -3.6422604    
H     -4.2974117    -0.4308032    -1.9482295    
H     -8.1702780    -3.5791140    -3.9339259    
H     -9.7065070    -2.6458284    -2.2361787    
H     -8.8096911    -1.0333772    -0.5838053    
H     -6.4231464    -0.4045772    -0.6972201    
N      4.1824916    -3.3227856     3.8541872    
C      4.4894651    -2.1812708     3.0100855    
C      5.7938034    -1.5466965     3.4557938    
O      6.1951335    -1.5864984     4.5906114    
C      3.3671036    -1.1539938     3.0681921    
C      4.8489598    -4.4633393     3.6956075    
O      5.6662540    -4.6674221     2.8112671    
H      3.5174162    -3.2113431     4.6022262    
H      4.6009733    -2.5398434     1.9847373    
H      6.3722100    -1.0290550     2.6801567    
H      3.2604223    -0.7784045     4.0794653    
H      2.4405937    -1.6195026     2.7526174    
H      3.5902244    -0.3268167     2.4043080    
H      4.6032765    -5.2473236     4.4189796    
