19

N      0.5975135     1.5378769    -0.7343182    
C     -0.3661860     0.5045826    -1.0605349    
C     -1.6914532     0.8206056    -0.4042973    
O     -1.7986623     1.4612285     0.6103888    
C      0.1183350    -0.8823552    -0.6148934    
C      0.3697288    -0.9982502     0.8753980    
C      0.8479956    -2.4275562     1.2638908    
O      0.2185716    -3.3912766     0.7872918    
O      1.8294234    -2.4994321     2.0303575    
C      0.3701704     2.7941150    -1.1086658    
O     -0.5664834     3.1493479    -1.8057693    
H      1.3874674     1.2987431    -0.1592368    
H     -0.4970565     0.4857083    -2.1459093    
H     -2.5821983     0.4159918    -0.9003948    
H      1.0444205    -1.1099375    -1.1399436    
H     -0.6412408    -1.6142169    -0.8793158    
H     -0.5516640    -0.8042085     1.4240860    
H      1.1408339    -0.3041888     1.1968666    
H      1.1113419     3.5180208    -0.7566284    
