19

N   14.908    151.241    29.757
C   13.952    150.197    29.405
C   12.602    150.501    30.038
O   12.529    151.158    31.078
C   14.446    148.821    29.857
C   14.685    148.691    31.346
C   15.163    147.303    31.729
O   14.554    146.316    31.263
O   16.146    147.197    32.493
C   14.719    152.503    29.377
O   13.777    152.851    28.663
H   15.7062    151.0086    30.2843
H   13.8502    150.1788    28.34
H   11.7388    150.1534    29.5918
H   15.3671    148.6156    29.3527
H   13.6686    148.1269    29.6146
H   13.7697    148.895    31.8613
H   15.4486    149.3891    31.619
H   15.39    153.2202    29.6939
