23

N   4.384    159.152    32.175
C   4.144    157.866    32.82
C   3.543    158.025    34.213
O   3.877    158.962    34.935
C   5.45    157.083    32.913
C   5.959    156.552    31.577
C   7.421    156.139    31.669
C   5.097    155.383    31.158
C   3.405    159.843    31.603
O   2.236    159.453    31.567
H   5.2978    159.5181    32.1634
H   3.4369    157.3326    32.2197
H   2.8498    157.3398    34.5522
H   6.1985    157.7272    33.3248
H   5.2528    156.2294    33.5273
H   5.896    157.3277    30.8427
H   7.5268    155.3613    32.3962
H   8.0122    156.9821    31.9598
H   7.7518    155.7832    30.7156
H   5.1625    154.6095    31.8944
H   5.438    155.0081    30.2156
H   4.0803    155.704    31.0674
H   3.6337    160.7503    31.1676
