24

N      0.9757643    -2.2138227    -1.0386037    
C      0.6866223    -0.9372167    -0.3987203    
C      0.9588707    -1.0699109     1.0925203    
O      0.3793563    -1.8568419     1.7951940    
C     -0.7833592    -0.5682596    -0.6252735    
C     -1.1012397     0.8466419    -0.2387509    
C     -0.6243648     1.9063856    -0.9953072    
C     -1.9001664     1.1178491     0.8590781    
C     -0.9320173     3.2079135    -0.6555687    
C     -2.2108188     2.4192932     1.2007385    
C     -1.7264348     3.4675150     0.4443793    
C      2.1950718    -2.7419730    -0.9772643    
O      3.1539570    -2.2081999    -0.4441396    
H      0.2277931    -2.7010659    -1.5044947    
H      1.3371295    -0.1719498    -0.8249813    
H      1.7227503    -0.4061145     1.5102289    
H     -1.4013607    -1.2459720    -0.0395659    
H     -0.9868501    -0.6825213    -1.6877340    
H     -0.0137189     1.7120573    -1.8571401    
H     -2.2837526     0.3061979     1.4490327    
H     -0.5553096     4.0200775    -1.2483301    
H     -2.8300829     2.6141832     2.0560036    
H     -1.9679713     4.4794324     0.7088611    
H      2.2938122    -3.7212370    -1.4556477    
