24

N   17.424    156.004    39.936
C   17.138    157.277    40.575
C   17.435    157.174    42.065
O   16.825    156.377    42.771
C   15.675    157.655    40.354
C   15.346    159.071    40.728
C   15.823    160.128    39.976
C   14.55    159.342    41.825
C   15.518    161.43    40.316
C   14.241    160.641    42.171
C   14.725    161.687    41.415
C   18.632    155.457    39.976
O   19.598    156.003    40.497
H   16.7014    155.5343    39.4601
H   17.7561    158.0372    40.145
H   18.1565    157.7805    42.4852
H   15.0661    157.0015    40.9431
H   15.4864    157.5606    39.305
H   16.414    159.9413    39.1508
H   14.1821    158.5625    42.3925
H   15.8829    162.2109    39.7485
H   13.6484    160.8294    42.9946
H   14.4947    162.66    41.6706
H   18.7648    154.5274    39.548
