18

N   15.56    154.767    29.118
C   15.737    153.53    29.865
C   14.719    152.503    29.377
O   13.777    152.851    28.663
C   15.542    153.746    31.383
O   14.144    153.736    31.701
C   16.145    155.073    31.822
C   16.544    155.307    28.405
O   17.676    154.812    28.328
H   14.6849    155.2175    29.1415
H   16.7364    153.1842    29.7019
H   14.8201    151.5119    29.6464
H   16.0382    152.9515    31.9002
H   13.7    154.4581    31.2294
H   15.6548    155.8744    31.3097
H   17.1889    155.0854    31.5875
H   16.0151    155.192    32.8774
H   16.3547    156.1815    27.8907
