20

N     -0.3781540     1.1191760     0.3760798    
C     -0.0752663    -0.0991010    -0.3495747    
C     -1.2471821    -0.4642377    -1.2375833    
O     -2.3778564    -0.5573842    -0.8317965    
C      0.2247119    -1.2786654     0.6042259    
C      0.9274306    -2.3838326    -0.1698183    
C      1.0892663    -0.8100918     1.7654243    
C      0.3977895     2.1932506     0.2444694    
O      1.4020675     2.2444866    -0.4456392    
H     -1.1850371     1.1284111     0.9794067    
H      0.8162808     0.1090291    -0.9432962    
H     -1.0197018    -0.6527175    -2.2937298    
H     -0.7227145    -1.6560086     0.9930165    
H      1.8685964    -2.0165107    -0.5670161    
H      0.3076474    -2.7273331    -0.9906541    
H      1.1317967    -3.2193176     0.4904848    
H      2.0318460    -0.4193313     1.3946694    
H      1.2890391    -1.6429767     2.4297650    
H      0.5856093    -0.0310782     2.3259707    
H      0.0695538     3.0672571     0.8155550    
