17

C     -0.5254522     0.8760307    -0.8561107    
O      0.1720184     1.9623935    -0.7044598    
O     -1.6623034     0.9586041    -1.1916188    
C      0.3757872    -0.3390620    -0.5610379    
N      1.7445561    -0.1619652    -0.3672044    
H      0.1927592    -0.9294453    -1.4470230    
C     -0.3130846    -1.0161591     0.6256324    
C      0.2035006    -2.3892497     0.8962656    
H      2.0158308     0.7551207    -0.7414607    
H      1.9968200    -0.1714198     0.6392109    
H     -0.3733689     2.7920168    -0.7293454    
H     -1.3905912    -0.9517044     0.4704519    
O     -0.0674579    -0.3464299     1.8129876    
H     -0.3461722     0.5642657     1.6773090    
H      0.5679256    -2.8442589    -0.0593454    
H     -0.5352810    -3.1458659     1.4817839    
H      0.9996089    -2.2364098     1.5625853    
