17

C     -0.4838553     0.8724008    -0.9232923    
O      0.1801683     2.0077969    -0.7585610    
O     -1.6711799     1.0086177    -1.1693234    
C      0.3168097    -0.3773999    -0.5955574    
N      1.7789164    -0.1705718    -0.3358205    
H      0.0970484    -0.9401361    -1.5439058    
C     -0.3007541    -1.0335646     0.6771292    
C      0.2141536    -2.4330412     0.9271820    
H      2.0877266     0.6962623    -0.7923896    
H      2.0056838    -0.0229809     0.6382667    
H     -0.4217878     2.7638450    -0.6363744    
H     -1.3560107    -0.9775088     0.3206074    
O     -0.1065363    -0.3654604     1.8915928    
H     -0.4548301     0.5120295     1.6940142    
H      0.4684032    -2.8585935     0.0100616    
H     -0.4511265    -2.9791059     1.4094176    
H      1.1744960    -2.3271382     1.5152966    
