17

C     -0.4434507     0.9879805    -0.9102309    
O      0.2706173     2.1242467    -0.7969165    
O     -1.6572776     0.9628388    -1.1270059    
C      0.3527541    -0.3113413    -0.6045867    
N      1.7200233    -0.1613045    -0.3703826    
H      0.2295071    -1.1104054    -1.3514874    
C     -0.3131391    -1.0555957     0.6510421    
C      0.2806470    -2.4837641     0.8945304    
H      2.2008697     0.4948548    -1.0091463    
H      1.7723356     0.1717304     0.5867120    
H     -0.4167450     2.7859657    -0.6768536    
H     -1.4019775    -1.3075109     0.4617014    
O     -0.2120886    -0.3338436     1.8820533    
H     -0.6686525     0.5268975     1.9909391    
H      0.3573678    -3.0419951    -0.0054628    
H     -0.3837007    -2.9306247     1.5492209    
H      1.2799041    -2.4907722     1.3769731    
