17

C     -0.5172841     0.8761494    -0.8748113    
O      0.0606566     2.0185442    -0.5003306    
O     -1.6536339     0.8447253    -1.2734476    
C      0.3069730    -0.3742841    -0.6146907    
N      1.7996880    -0.1349228    -0.4022819    
H      0.0112569    -1.0037183    -1.4485215    
C     -0.2236736    -1.0097919     0.6825507    
C      0.1641020    -2.4285071     0.8943146    
H      1.6990758     0.8721141    -0.2958814    
H      1.9614757    -0.5986770     0.4612082    
H     -0.2298292     2.7895300    -1.0440271    
H     -1.3052638    -0.8859456     0.5783436    
O      0.0838305    -0.1740977     1.7855660    
H     -0.1867588     0.6950394     1.4887578    
H      0.7059601    -2.6874873    -0.0206869    
H     -0.7138687    -3.0649929     1.0548842    
H      0.8299801    -2.6324944     1.8756227    
