17

C     -0.5921838     0.8961991    -0.8334053    
O      0.1026716     2.0233414    -0.5140442    
O     -1.6883960     0.8633460    -1.3569803    
C      0.3473603    -0.3744679    -0.5990088    
N      1.7894193    -0.1286899    -0.4535675    
H      0.1102917    -1.0893484    -1.4421934    
C     -0.2607189    -0.9842283     0.7346594    
C      0.1998925    -2.4722718     0.9043060    
H      1.8115543     0.8710807    -0.1944719    
H      2.0183924    -0.6745318     0.4246257    
H     -0.3771091     2.7556323    -0.9576424    
H     -1.3478692    -0.8925481     0.5937017    
O      0.1100910    -0.1576723     1.8040138    
H     -0.1670373     0.7392022     1.5462731    
H      0.7552873    -2.7552749     0.0275956    
H     -0.7231985    -3.0305634     1.0038485    
H      0.7010234    -2.6264718     1.7848478    
